Global frequency set at 1000000000000 ticks per second
gem5 Simulator System.  https://www.gem5.org
gem5 is copyrighted software; use the --copyright option for details.

gem5 version 25.0.0.1
gem5 compiled Oct 23 2025 06:19:15
gem5 started Oct 23 2025 10:02:56
gem5 executing on Ayokunles-Laptop.local, pid 93412
command line: /Users/ayokunleamodu/Documents/Projects/riscv-isa-extension-analysis-/gem5/build/RISCV/gem5.opt --outdir /Users/ayokunleamodu/Documents/Projects/riscv-isa-extension-analysis-/results/gshare/bfs /Users/ayokunleamodu/Documents/Projects/riscv-isa-extension-analysis-/src/run_branch_pred.py --binary /Users/ayokunleamodu/Documents/Projects/riscv-isa-extension-analysis-/benchmarks/bfs_riscv --predictor gshare

============================================================
SCRIPT STARTING!
============================================================
Parsing arguments...
Configuration: /Users/ayokunleamodu/Documents/Projects/riscv-isa-extension-analysis-/benchmarks/bfs_riscv with gshare
Predictor: gshare configured
Loading binary: /Users/ayokunleamodu/Documents/Projects/riscv-isa-extension-analysis-/benchmarks/bfs_riscv
Instantiating...
Starting simulation...
BFS visited 7 nodes
BFS visited 7 nodes
BFS visited 7 nodes
BFS visited 7 nodes
BFS visited 7 nodes
DONE! Exited @ tick 262934000
