Global frequency set at 1000000000000 ticks per second
gem5 Simulator System.  https://www.gem5.org
gem5 is copyrighted software; use the --copyright option for details.

gem5 version 25.0.0.1
gem5 compiled Oct 23 2025 06:19:15
gem5 started Oct 23 2025 10:02:55
gem5 executing on Ayokunles-Laptop.local, pid 93409
command line: /Users/ayokunleamodu/Documents/Projects/riscv-isa-extension-analysis-/gem5/build/RISCV/gem5.opt --outdir /Users/ayokunleamodu/Documents/Projects/riscv-isa-extension-analysis-/results/bimodal/hash_lookup /Users/ayokunleamodu/Documents/Projects/riscv-isa-extension-analysis-/src/run_branch_pred.py --binary /Users/ayokunleamodu/Documents/Projects/riscv-isa-extension-analysis-/benchmarks/hash_lookup_riscv --predictor bimodal

============================================================
SCRIPT STARTING!
============================================================
Parsing arguments...
Configuration: /Users/ayokunleamodu/Documents/Projects/riscv-isa-extension-analysis-/benchmarks/hash_lookup_riscv with bimodal
Predictor: bimodal configured
Loading binary: /Users/ayokunleamodu/Documents/Projects/riscv-isa-extension-analysis-/benchmarks/hash_lookup_riscv
Instantiating...
Starting simulation...
Inserting keys...
Looking up keys...
Found: 400, Not found: 200
Counting collision chains...
Total nodes: 200, Max chain length: 4
Deleting keys...
Deleted 67 keys
DONE! Exited @ tick 1148614000
